[Format]      =  4.0
[Frequency]   =  0
[Precision]   =  1e-008
[MinAngle]    =  30
[Depth]       =  3
[LengthUnits] =  centimeters
[ProblemType] =  planar
[Coordinates] =  cartesian
[ACSolver]    =  0
[Comment]     =  "Add comments here."
[PointProps]   = 0
[BdryProps]   = 0
[BlockProps]  = 0
[CircuitProps]  = 0
[NumPoints] = 21
3	0	0	0
8.5	0	0	0
11.5	-3	0	0
11.5	-14	0	0
8.5	-17	0	0
3	-17	0	0
0	-14	0	0
0	-3	0	0
3	-3	0	0
8.5	-3	0	0
8.5	-14	0	0
3	-14	0	0
-0.29999999999999999	13.300000000000001	0	0
-0.80000000000000004	-7	0	0
-0.29999999999999999	-7	0	0
-0.29999999999999999	-13.300000000000001	0	0
-0.80000000000000004	-13.300000000000001	0	0
3.2999999999999998	-7	0	0
3.7999999999999998	-7	0	0
3.2999999999999998	-13.300000000000001	0	0
3.7999999999999998	-13.300000000000001	0	0
[NumSegments] = 16
0	1	-1	0	0	0
2	3	-1	0	0	0
4	5	-1	0	0	0
6	7	-1	0	0	0
8	9	-1	0	0	0
9	10	-1	0	0	0
10	11	-1	0	0	0
11	8	-1	0	0	0
16	13	-1	0	0	0
14	13	-1	0	0	0
14	15	-1	0	0	0
15	16	-1	0	0	0
17	19	-1	0	0	0
19	20	-1	0	0	0
20	18	-1	0	0	0
18	17	-1	0	0	0
[NumArcSegments] = 4
2	1	90	1	0	0	0
0	7	90	1	0	0	0
4	3	90	1	0	0	0
6	5	90	1	0	0	0
[NumHoles] = 0
[NumBlockLabels] = 0
